#**********************************************************************************************
#*****             Init IPL parameters config Operating System z/OS 3.1 VSI               *****
#**********************************************************************************************
#***** without this dont work
ARCHLVL  z/ARCH 
FACILITY ENABLE 006_ASN_LX_REUSE
FACILITY ENABLE 044_PFPO 
FACILITY ENABLE 080_DFP_PACK_CONV
FACILITY ENABLE 037_FP_EXTENSION
FACILITY ENABLE 050_CONSTR_TRANSACT
FACILITY ENABLE 051_LOCAL_TLB_CLEARING 
FACILITY ENABLE 073_TRANSACT_EXEC
FACILITY ENABLE 074_STORE_HYPER_INFO
FACILITY ENABLE 145_INS_REF_BITS_MULT

##FACILITY QUERY ENABLED
##FACILITY QUERY ALL

**********
* WARNING execute on command line before IPL/LOADPARM 
* on hercules ---> 'FAC ENA 054' 'FAC ENA 129' 'FAC ENA 130' 'FAC ENA 134' and 'FAC ENA 135' 
*********
*FACILITY  ENABLE  054       # 054_EE_CMPSC
*FACILITY  ENABLE  129       # 129_ZVECTOR
*FACILITY  ENABLE  130       # 130_INSTR_EXEC_PROT
*FACILITY  ENABLE  134       # 134_ZVECTOR_PACK_DEC
*FACILITY  ENABLE  135       # 135_ZVECTOR_ENH_1
***** without this dont work

#CNSLPORT 992
CNSLPORT 3270      # port to use for x3270 local connections

CODEPAGE  DEFAULT
CPUMODEL  8562	   # CPU model number - Z15
CPUSERIAL 02B7F8   # CPU serial number - Z15
MODEL     T02 S03  # STSI returned Hardware model Capacity model - Z15
CPUVERID  00
ENGINES   CP   

***********
* IPL DE27
***********
LOADPARM  DE28K2M.

#LOG       C:\Users\Public\ZOS111\LOGS\logzOS
#MODPATH   C:\hercules\sdl-hyperion\msvc.AMD64.bin
LOG       /data/zos31/LOGS/logzOS
#MODPATH   /usr/local/hercules/sdl-hyperion/msvc.AMD64.bin

LOGOPT    TIMESTAMP

LPARNAME  VS01
MAINSIZE  12G
MANUFACTURER IBM
MAXCPU    8 
NUMCPU    6

OSTAILOR  z/OS
PGMPRDOS  LICENSED 
PLANT     02
SYSEPOCH  1900
#TZOFFSET  -0300
TZOFFSET  0
TIMERINT 400
CONKPALV (3,1,10)


#**********************************************************************************************
#*****         Reserved area to OS z/OS and products                                      *****
#**********************************************************************************************
###########
#IPL DE27
###########

DE25 3390   /data/zos31/CICS61.CCKD cu=3990-6
DE26 3390   /data/zos31/D31VS1.CCKD cu=3990-6
DE27 3390   /data/zos31/Z31VS1.CCKD cu=3990-6
DE28 3390   /data/zos31/OPEVS1.CCKD cu=3990-6
DE29 3390   /data/zos31/STGVS1.CCKD cu=3990-6
DE2A 3390   /data/zos31/DEVVS1.CCKD cu=3990-6
DE2B 3390   /data/zos31/IMSV15.CCKD cu=3990-6
DE2C 3390   /data/zos31/JCKVS1.CCKD cu=3990-6
DE2D 3390   /data/zos31/JSPVS1.CCKD cu=3990-6
DE2E 3390   /data/zos31/MQCD93.CCKD cu=3990-6
DE2F 3390   /data/zos31/PRDVS1.CCKD cu=3990-6
DE30 3390   /data/zos31/DB2V13.CCKD cu=3990-6
DE31 3390   /data/zos31/T31VS1.CCKD cu=3990-6
DE32 3390   /data/zos31/ZFSVS1.CCKD cu=3990-6
DE33 3390   /data/zos31/USRVS1.CCKD cu=3990-6
#DE00 3390  
#DE01 3390
#DE02 3390
#DE03 3390
#DE04 3390
#DE05 3390
#DE06 3390
#DE07 3390
#DE08 3390
#DE09 3390
#DE0A 3390
#DE0B 3390
#DE0C 3390
#DE0D 3390
#DE0E 3390
#DE0F 3390


#**********************************************************************************************
#*****       LCS Adapters with z/OS                                                       *****
#**********************************************************************************************
#****0E20.2 LCS -n 192.168.43.35 192.168.43.225
#0E20.2 LCS -n 192.168.1.54 192.168.1.
## FIRST IPADDR IS THE WINDOWS PC, SECOND IS Z/OS
# 0E20.2 LCS --dev 192.168.1.51 192.168.1.52

#***********************************************************************
#*name	awsosa	0009	--path=A0	--pathtype=OSD	--tunnel_intf=y
#*device	1500	osa     osa	--unitadd=0
#*device	1501	osa	osa	--unitadd=1
#*device	1502	osa	osa	--unitadd=2
#*device	1503	osa	osa	--unitadd=3
#**********************************************************************
#1500.3 QETH iface /dev/net/tun iface 192.168.100.99 ipaddr 192.168.100.150 netmask 255.255.255.0 hwaddr 02-00-00-11-10-04 mtu 1500
#1500.3 QETH iface 3C-64-CF-BE-8B-5A ipaddr 192.168.1.54/24 netmask 255.255.255.0 hwaddr 02-00-00-11-10-00 mtu 1500 chpid F0

1500.3 QETH ifname tun0 ipaddr 192.168.100.1 netmask 255.255.255.0 hwaddr 02-00-00-11-10-04 mtu 1500 chpid F0

#**********************************************************************************************
#*****                 Master (0060) and terms 3270 (0061)                                *****
#**********************************************************************************************
#** dont change original DEVMAP parameters
#**name    aws3274 0002    #define a few 3270 terminals 
#**---> device  0060    3279    3274    mstcon  <-----
#**---> device  0061    3279    3274    tso1    <-----
#**

0060	3270
0061 	3270

#****************
#**********************************************************************************************
#*****             Fim da carga de parametros do arquivo de configuracao                  *****
#**********************************************************************************************

script /data/zos31/IPL31.rc
